#!/bin/bash

set -x

checkExitCode() {
if [ $? -ne 0 ]; then
    echo "Error"
    exit 1;
fi
}

#export TMPDIRORIG="$TMPDIR"
#export TMPDIR='/opt/wings'
#TEMPDIR=$(mktemp -d "${TMPDIR:-/tmp/}$(basename $0).XXXXXXXXXXXX")

#TEMPDIR='/opt/wings/test'
TEMPDIR='input'
mkdir -p ${TEMPDIR}


NAM=$TEMPDIR/tmp.nam
#export TMPDIR="$TMPDIRORIG"

BASEDIR=`dirname $0`

. $BASEDIR/io.sh 9 0 4 "$@"

cp $INPUTS1 $TEMPDIR
cp $INPUTS2 $TEMPDIR
cp $INPUTS3 $TEMPDIR
cp $INPUTS4 $TEMPDIR
cp $INPUTS5 $TEMPDIR
cp $INPUTS6 $TEMPDIR
cp $INPUTS7 $TEMPDIR
cp $INPUTS8 $TEMPDIR
cp $INPUTS9 $TEMPDIR

BAS6=$(basename $INPUTS1)
DIS=$(basename $INPUTS2)
BCF6=$(basename $INPUTS3)
OC=$(basename $INPUTS4)
WEL=$(basename $INPUTS5)
DRN=$(basename $INPUTS6)
RCH=$(basename $INPUTS7)
HFB6=$(basename $INPUTS8)
SIP=$(basename $INPUTS9)

#LST=$(basename $OUTPUTS1)
#CBB=$(basename $OUTPUTS2)
#HDS=$(basename $OUTPUTS3)
#DDN=$(basename $OUTPUTS4)


echo "## MODFLOW-2005 name-file" >> $NAM
echo "LIST    7    LST" >> $NAM
echo "BAS6    1    $BAS6" >> $NAM
echo "DIS    10    $DIS" >> $NAM
echo "BCF6    11   $BCF6" >> $NAM
echo "OC    22    $OC" >> $NAM
echo "WEL    12    $WEL" >> $NAM
echo "DRN    13    $DRN" >> $NAM
echo "RCH    18    $RCH" >> $NAM
echo "HFB6    26    $HFB6" >> $NAM
echo "SIP    19    $SIP" >> $NAM
echo "DATA(BINARY)    50    CBB" >> $NAM
echo "DATA(BINARY)    51    HDS" >> $NAM
echo "DATA(BINARY)    52    DDN" >> $NAM

#env

#docker run --volumes-from ${HOSTNAME} -w $TEMPDIR lucasaugustomcc/modflow-2005:latest mf2005 $NAM
mf2005 $NAM

checkExitCode

#outputs are already written on the right url
mv LST $OUTPUTS1
mv CBB $OUTPUTS2
mv HDS $OUTPUTS3
mv DDN $OUTPUTS4

#trap "rm -rf $TEMPDIR"
checkExitCode
