# SIP package for  MODFLOW-2005, generated by Flopy.
1000 5
0.975 0.1 1 0.0 1
