# OC package for  MODFLOW-2005, generated by Flopy.
HEAD PRINT FORMAT   0
HEAD SAVE UNIT    51
DRAWDOWN PRINT FORMAT   0
DRAWDOWN SAVE UNIT    52

period 1 step 1 
  print head
  print drawdown
  print budget
  save head
  save drawdown
  save budget
  save ibound

period 1 step 2 
  print head
  print drawdown
  print budget
  save head
  save drawdown
  save budget
  save ibound

period 1 step 3 
  print head
  print drawdown
  print budget
  save head
  save drawdown
  save budget
  save ibound

period 1 step 4 
  print head
  print drawdown
  print budget
  save head
  save drawdown
  save budget
  save ibound

period 1 step 5 
  print head
  print drawdown
  print budget
  save head
  save drawdown
  save budget
  save ibound

period 1 step 6 
  print head
  print drawdown
  print budget
  save head
  save drawdown
  save budget
  save ibound

period 1 step 7 
  print head
  print drawdown
  print budget
  save head
  save drawdown
  save budget
  save ibound

period 1 step 8 
  print head
  print drawdown
  print budget
  save head
  save drawdown
  save budget
  save ibound

period 1 step 9 
  print head
  print drawdown
  print budget
  save head
  save drawdown
  save budget
  save ibound

period 1 step 10 
  print head
  print drawdown
  print budget
  save head
  save drawdown
  save budget
  save ibound

period 1 step 11 
  print head
  print drawdown
  print budget
  save head
  save drawdown
  save budget
  save ibound

period 1 step 12 
  print head
  print drawdown
  print budget
  save head
  save drawdown
  save budget
  save ibound

period 2 step 1 
  print head
  print drawdown
  print budget
  save head
  save drawdown
  save budget
  save ibound

period 2 step 2 
  print head
  print drawdown
  print budget
  save head
  save drawdown
  save budget
  save ibound

period 2 step 3 
  print head
  print drawdown
  print budget
  save head
  save drawdown
  save budget
  save ibound

period 2 step 4 
  print head
  print drawdown
  print budget
  save head
  save drawdown
  save budget
  save ibound

period 2 step 5 
  print head
  print drawdown
  print budget
  save head
  save drawdown
  save budget
  save ibound

period 2 step 6 
  print head
  print drawdown
  print budget
  save head
  save drawdown
  save budget
  save ibound

period 2 step 7 
  print head
  print drawdown
  print budget
  save head
  save drawdown
  save budget
  save ibound

period 2 step 8 
  print head
  print drawdown
  print budget
  save head
  save drawdown
  save budget
  save ibound

period 2 step 9 
  print head
  print drawdown
  print budget
  save head
  save drawdown
  save budget
  save ibound

period 2 step 10 
  print head
  print drawdown
  print budget
  save head
  save drawdown
  save budget
  save ibound

period 2 step 11 
  print head
  print drawdown
  print budget
  save head
  save drawdown
  save budget
  save ibound

period 2 step 12 
  print head
  print drawdown
  print budget
  save head
  save drawdown
  save budget
  save ibound

period 3 step 1 
  print head
  print drawdown
  print budget
  save head
  save drawdown
  save budget
  save ibound

period 3 step 2 
  print head
  print drawdown
  print budget
  save head
  save drawdown
  save budget
  save ibound

period 3 step 3 
  print head
  print drawdown
  print budget
  save head
  save drawdown
  save budget
  save ibound

period 3 step 4 
  print head
  print drawdown
  print budget
  save head
  save drawdown
  save budget
  save ibound

period 3 step 5 
  print head
  print drawdown
  print budget
  save head
  save drawdown
  save budget
  save ibound

period 3 step 6 
  print head
  print drawdown
  print budget
  save head
  save drawdown
  save budget
  save ibound

period 3 step 7 
  print head
  print drawdown
  print budget
  save head
  save drawdown
  save budget
  save ibound

period 3 step 8 
  print head
  print drawdown
  print budget
  save head
  save drawdown
  save budget
  save ibound

period 3 step 9 
  print head
  print drawdown
  print budget
  save head
  save drawdown
  save budget
  save ibound

period 3 step 10 
  print head
  print drawdown
  print budget
  save head
  save drawdown
  save budget
  save ibound

period 3 step 11 
  print head
  print drawdown
  print budget
  save head
  save drawdown
  save budget
  save ibound

period 3 step 12 
  print head
  print drawdown
  print budget
  save head
  save drawdown
  save budget
  save ibound

period 4 step 1 
  print head
  print drawdown
  print budget
  save head
  save drawdown
  save budget
  save ibound

period 4 step 2 
  print head
  print drawdown
  print budget
  save head
  save drawdown
  save budget
  save ibound

period 4 step 3 
  print head
  print drawdown
  print budget
  save head
  save drawdown
  save budget
  save ibound

period 4 step 4 
  print head
  print drawdown
  print budget
  save head
  save drawdown
  save budget
  save ibound

period 4 step 5 
  print head
  print drawdown
  print budget
  save head
  save drawdown
  save budget
  save ibound

period 4 step 6 
  print head
  print drawdown
  print budget
  save head
  save drawdown
  save budget
  save ibound

period 4 step 7 
  print head
  print drawdown
  print budget
  save head
  save drawdown
  save budget
  save ibound

period 4 step 8 
  print head
  print drawdown
  print budget
  save head
  save drawdown
  save budget
  save ibound

period 4 step 9 
  print head
  print drawdown
  print budget
  save head
  save drawdown
  save budget
  save ibound

period 4 step 10 
  print head
  print drawdown
  print budget
  save head
  save drawdown
  save budget
  save ibound

period 4 step 11 
  print head
  print drawdown
  print budget
  save head
  save drawdown
  save budget
  save ibound

period 4 step 12 
  print head
  print drawdown
  print budget
  save head
  save drawdown
  save budget
  save ibound

period 5 step 1 
  print head
  print drawdown
  print budget
  save head
  save drawdown
  save budget
  save ibound

period 5 step 2 
  print head
  print drawdown
  print budget
  save head
  save drawdown
  save budget
  save ibound

period 5 step 3 
  print head
  print drawdown
  print budget
  save head
  save drawdown
  save budget
  save ibound

period 5 step 4 
  print head
  print drawdown
  print budget
  save head
  save drawdown
  save budget
  save ibound

period 5 step 5 
  print head
  print drawdown
  print budget
  save head
  save drawdown
  save budget
  save ibound

period 5 step 6 
  print head
  print drawdown
  print budget
  save head
  save drawdown
  save budget
  save ibound

period 5 step 7 
  print head
  print drawdown
  print budget
  save head
  save drawdown
  save budget
  save ibound

period 5 step 8 
  print head
  print drawdown
  print budget
  save head
  save drawdown
  save budget
  save ibound

period 5 step 9 
  print head
  print drawdown
  print budget
  save head
  save drawdown
  save budget
  save ibound

period 5 step 10 
  print head
  print drawdown
  print budget
  save head
  save drawdown
  save budget
  save ibound

period 5 step 11 
  print head
  print drawdown
  print budget
  save head
  save drawdown
  save budget
  save ibound

period 5 step 12 
  print head
  print drawdown
  print budget
  save head
  save drawdown
  save budget
  save ibound

period 6 step 1 
  print head
  print drawdown
  print budget
  save head
  save drawdown
  save budget
  save ibound

period 6 step 2 
  print head
  print drawdown
  print budget
  save head
  save drawdown
  save budget
  save ibound

period 6 step 3 
  print head
  print drawdown
  print budget
  save head
  save drawdown
  save budget
  save ibound

period 6 step 4 
  print head
  print drawdown
  print budget
  save head
  save drawdown
  save budget
  save ibound

period 6 step 5 
  print head
  print drawdown
  print budget
  save head
  save drawdown
  save budget
  save ibound

period 6 step 6 
  print head
  print drawdown
  print budget
  save head
  save drawdown
  save budget
  save ibound

period 6 step 7 
  print head
  print drawdown
  print budget
  save head
  save drawdown
  save budget
  save ibound

period 6 step 8 
  print head
  print drawdown
  print budget
  save head
  save drawdown
  save budget
  save ibound

period 6 step 9 
  print head
  print drawdown
  print budget
  save head
  save drawdown
  save budget
  save ibound

period 6 step 10 
  print head
  print drawdown
  print budget
  save head
  save drawdown
  save budget
  save ibound

period 6 step 11 
  print head
  print drawdown
  print budget
  save head
  save drawdown
  save budget
  save ibound

period 6 step 12 
  print head
  print drawdown
  print budget
  save head
  save drawdown
  save budget
  save ibound

period 7 step 1 
  print head
  print drawdown
  print budget
  save head
  save drawdown
  save budget
  save ibound

period 7 step 2 
  print head
  print drawdown
  print budget
  save head
  save drawdown
  save budget
  save ibound

period 7 step 3 
  print head
  print drawdown
  print budget
  save head
  save drawdown
  save budget
  save ibound

period 7 step 4 
  print head
  print drawdown
  print budget
  save head
  save drawdown
  save budget
  save ibound

period 7 step 5 
  print head
  print drawdown
  print budget
  save head
  save drawdown
  save budget
  save ibound

period 7 step 6 
  print head
  print drawdown
  print budget
  save head
  save drawdown
  save budget
  save ibound

period 7 step 7 
  print head
  print drawdown
  print budget
  save head
  save drawdown
  save budget
  save ibound

period 7 step 8 
  print head
  print drawdown
  print budget
  save head
  save drawdown
  save budget
  save ibound

period 7 step 9 
  print head
  print drawdown
  print budget
  save head
  save drawdown
  save budget
  save ibound

period 7 step 10 
  print head
  print drawdown
  print budget
  save head
  save drawdown
  save budget
  save ibound

period 7 step 11 
  print head
  print drawdown
  print budget
  save head
  save drawdown
  save budget
  save ibound

period 7 step 12 
  print head
  print drawdown
  print budget
  save head
  save drawdown
  save budget
  save ibound

period 8 step 1 
  print head
  print drawdown
  print budget
  save head
  save drawdown
  save budget
  save ibound

period 8 step 2 
  print head
  print drawdown
  print budget
  save head
  save drawdown
  save budget
  save ibound

period 8 step 3 
  print head
  print drawdown
  print budget
  save head
  save drawdown
  save budget
  save ibound

period 8 step 4 
  print head
  print drawdown
  print budget
  save head
  save drawdown
  save budget
  save ibound

period 8 step 5 
  print head
  print drawdown
  print budget
  save head
  save drawdown
  save budget
  save ibound

period 8 step 6 
  print head
  print drawdown
  print budget
  save head
  save drawdown
  save budget
  save ibound

period 8 step 7 
  print head
  print drawdown
  print budget
  save head
  save drawdown
  save budget
  save ibound

period 8 step 8 
  print head
  print drawdown
  print budget
  save head
  save drawdown
  save budget
  save ibound

period 8 step 9 
  print head
  print drawdown
  print budget
  save head
  save drawdown
  save budget
  save ibound

period 8 step 10 
  print head
  print drawdown
  print budget
  save head
  save drawdown
  save budget
  save ibound

period 8 step 11 
  print head
  print drawdown
  print budget
  save head
  save drawdown
  save budget
  save ibound

period 8 step 12 
  print head
  print drawdown
  print budget
  save head
  save drawdown
  save budget
  save ibound

period 9 step 1 
  print head
  print drawdown
  print budget
  save head
  save drawdown
  save budget
  save ibound

period 9 step 2 
  print head
  print drawdown
  print budget
  save head
  save drawdown
  save budget
  save ibound

period 9 step 3 
  print head
  print drawdown
  print budget
  save head
  save drawdown
  save budget
  save ibound

period 9 step 4 
  print head
  print drawdown
  print budget
  save head
  save drawdown
  save budget
  save ibound

period 9 step 5 
  print head
  print drawdown
  print budget
  save head
  save drawdown
  save budget
  save ibound

period 9 step 6 
  print head
  print drawdown
  print budget
  save head
  save drawdown
  save budget
  save ibound

period 9 step 7 
  print head
  print drawdown
  print budget
  save head
  save drawdown
  save budget
  save ibound

period 9 step 8 
  print head
  print drawdown
  print budget
  save head
  save drawdown
  save budget
  save ibound

period 9 step 9 
  print head
  print drawdown
  print budget
  save head
  save drawdown
  save budget
  save ibound

period 9 step 10 
  print head
  print drawdown
  print budget
  save head
  save drawdown
  save budget
  save ibound

period 9 step 11 
  print head
  print drawdown
  print budget
  save head
  save drawdown
  save budget
  save ibound

period 9 step 12 
  print head
  print drawdown
  print budget
  save head
  save drawdown
  save budget
  save ibound

period 10 step 1 
  print head
  print drawdown
  print budget
  save head
  save drawdown
  save budget
  save ibound

period 10 step 2 
  print head
  print drawdown
  print budget
  save head
  save drawdown
  save budget
  save ibound

period 10 step 3 
  print head
  print drawdown
  print budget
  save head
  save drawdown
  save budget
  save ibound

period 10 step 4 
  print head
  print drawdown
  print budget
  save head
  save drawdown
  save budget
  save ibound

period 10 step 5 
  print head
  print drawdown
  print budget
  save head
  save drawdown
  save budget
  save ibound

period 10 step 6 
  print head
  print drawdown
  print budget
  save head
  save drawdown
  save budget
  save ibound

period 10 step 7 
  print head
  print drawdown
  print budget
  save head
  save drawdown
  save budget
  save ibound

period 10 step 8 
  print head
  print drawdown
  print budget
  save head
  save drawdown
  save budget
  save ibound

period 10 step 9 
  print head
  print drawdown
  print budget
  save head
  save drawdown
  save budget
  save ibound

period 10 step 10 
  print head
  print drawdown
  print budget
  save head
  save drawdown
  save budget
  save ibound

period 10 step 11 
  print head
  print drawdown
  print budget
  save head
  save drawdown
  save budget
  save ibound

period 10 step 12 
  print head
  print drawdown
  print budget
  save head
  save drawdown
  save budget
  save ibound

period 11 step 1 
  print head
  print drawdown
  print budget
  save head
  save drawdown
  save budget
  save ibound

period 11 step 2 
  print head
  print drawdown
  print budget
  save head
  save drawdown
  save budget
  save ibound

period 11 step 3 
  print head
  print drawdown
  print budget
  save head
  save drawdown
  save budget
  save ibound

period 11 step 4 
  print head
  print drawdown
  print budget
  save head
  save drawdown
  save budget
  save ibound

period 11 step 5 
  print head
  print drawdown
  print budget
  save head
  save drawdown
  save budget
  save ibound

period 11 step 6 
  print head
  print drawdown
  print budget
  save head
  save drawdown
  save budget
  save ibound

period 11 step 7 
  print head
  print drawdown
  print budget
  save head
  save drawdown
  save budget
  save ibound

period 11 step 8 
  print head
  print drawdown
  print budget
  save head
  save drawdown
  save budget
  save ibound

period 11 step 9 
  print head
  print drawdown
  print budget
  save head
  save drawdown
  save budget
  save ibound

period 11 step 10 
  print head
  print drawdown
  print budget
  save head
  save drawdown
  save budget
  save ibound

period 11 step 11 
  print head
  print drawdown
  print budget
  save head
  save drawdown
  save budget
  save ibound

period 11 step 12 
  print head
  print drawdown
  print budget
  save head
  save drawdown
  save budget
  save ibound

period 12 step 1 
  print head
  print drawdown
  print budget
  save head
  save drawdown
  save budget
  save ibound

period 12 step 2 
  print head
  print drawdown
  print budget
  save head
  save drawdown
  save budget
  save ibound

period 12 step 3 
  print head
  print drawdown
  print budget
  save head
  save drawdown
  save budget
  save ibound

period 12 step 4 
  print head
  print drawdown
  print budget
  save head
  save drawdown
  save budget
  save ibound

period 12 step 5 
  print head
  print drawdown
  print budget
  save head
  save drawdown
  save budget
  save ibound

period 12 step 6 
  print head
  print drawdown
  print budget
  save head
  save drawdown
  save budget
  save ibound

period 12 step 7 
  print head
  print drawdown
  print budget
  save head
  save drawdown
  save budget
  save ibound

period 12 step 8 
  print head
  print drawdown
  print budget
  save head
  save drawdown
  save budget
  save ibound

period 12 step 9 
  print head
  print drawdown
  print budget
  save head
  save drawdown
  save budget
  save ibound

period 12 step 10 
  print head
  print drawdown
  print budget
  save head
  save drawdown
  save budget
  save ibound

period 12 step 11 
  print head
  print drawdown
  print budget
  save head
  save drawdown
  save budget
  save ibound

period 12 step 12 
  print head
  print drawdown
  print budget
  save head
  save drawdown
  save budget
  save ibound

period 13 step 1 
  print head
  print drawdown
  print budget
  save head
  save drawdown
  save budget
  save ibound

period 13 step 2 
  print head
  print drawdown
  print budget
  save head
  save drawdown
  save budget
  save ibound

period 13 step 3 
  print head
  print drawdown
  print budget
  save head
  save drawdown
  save budget
  save ibound

period 13 step 4 
  print head
  print drawdown
  print budget
  save head
  save drawdown
  save budget
  save ibound

period 13 step 5 
  print head
  print drawdown
  print budget
  save head
  save drawdown
  save budget
  save ibound

period 13 step 6 
  print head
  print drawdown
  print budget
  save head
  save drawdown
  save budget
  save ibound

period 13 step 7 
  print head
  print drawdown
  print budget
  save head
  save drawdown
  save budget
  save ibound

period 13 step 8 
  print head
  print drawdown
  print budget
  save head
  save drawdown
  save budget
  save ibound

period 13 step 9 
  print head
  print drawdown
  print budget
  save head
  save drawdown
  save budget
  save ibound

period 13 step 10 
  print head
  print drawdown
  print budget
  save head
  save drawdown
  save budget
  save ibound

period 13 step 11 
  print head
  print drawdown
  print budget
  save head
  save drawdown
  save budget
  save ibound

period 13 step 12 
  print head
  print drawdown
  print budget
  save head
  save drawdown
  save budget
  save ibound

period 14 step 1 
  print head
  print drawdown
  print budget
  save head
  save drawdown
  save budget
  save ibound

period 14 step 2 
  print head
  print drawdown
  print budget
  save head
  save drawdown
  save budget
  save ibound

period 14 step 3 
  print head
  print drawdown
  print budget
  save head
  save drawdown
  save budget
  save ibound

period 14 step 4 
  print head
  print drawdown
  print budget
  save head
  save drawdown
  save budget
  save ibound

period 14 step 5 
  print head
  print drawdown
  print budget
  save head
  save drawdown
  save budget
  save ibound

period 14 step 6 
  print head
  print drawdown
  print budget
  save head
  save drawdown
  save budget
  save ibound

period 14 step 7 
  print head
  print drawdown
  print budget
  save head
  save drawdown
  save budget
  save ibound

period 14 step 8 
  print head
  print drawdown
  print budget
  save head
  save drawdown
  save budget
  save ibound

period 14 step 9 
  print head
  print drawdown
  print budget
  save head
  save drawdown
  save budget
  save ibound

period 14 step 10 
  print head
  print drawdown
  print budget
  save head
  save drawdown
  save budget
  save ibound

period 14 step 11 
  print head
  print drawdown
  print budget
  save head
  save drawdown
  save budget
  save ibound

period 14 step 12 
  print head
  print drawdown
  print budget
  save head
  save drawdown
  save budget
  save ibound

period 15 step 1 
  print head
  print drawdown
  print budget
  save head
  save drawdown
  save budget
  save ibound

period 15 step 2 
  print head
  print drawdown
  print budget
  save head
  save drawdown
  save budget
  save ibound

period 15 step 3 
  print head
  print drawdown
  print budget
  save head
  save drawdown
  save budget
  save ibound

period 15 step 4 
  print head
  print drawdown
  print budget
  save head
  save drawdown
  save budget
  save ibound

period 15 step 5 
  print head
  print drawdown
  print budget
  save head
  save drawdown
  save budget
  save ibound

period 15 step 6 
  print head
  print drawdown
  print budget
  save head
  save drawdown
  save budget
  save ibound

period 15 step 7 
  print head
  print drawdown
  print budget
  save head
  save drawdown
  save budget
  save ibound

period 15 step 8 
  print head
  print drawdown
  print budget
  save head
  save drawdown
  save budget
  save ibound

period 15 step 9 
  print head
  print drawdown
  print budget
  save head
  save drawdown
  save budget
  save ibound

period 15 step 10 
  print head
  print drawdown
  print budget
  save head
  save drawdown
  save budget
  save ibound

period 15 step 11 
  print head
  print drawdown
  print budget
  save head
  save drawdown
  save budget
  save ibound

period 15 step 12 
  print head
  print drawdown
  print budget
  save head
  save drawdown
  save budget
  save ibound

period 16 step 1 
  print head
  print drawdown
  print budget
  save head
  save drawdown
  save budget
  save ibound

period 16 step 2 
  print head
  print drawdown
  print budget
  save head
  save drawdown
  save budget
  save ibound

period 16 step 3 
  print head
  print drawdown
  print budget
  save head
  save drawdown
  save budget
  save ibound

period 16 step 4 
  print head
  print drawdown
  print budget
  save head
  save drawdown
  save budget
  save ibound

period 16 step 5 
  print head
  print drawdown
  print budget
  save head
  save drawdown
  save budget
  save ibound

period 16 step 6 
  print head
  print drawdown
  print budget
  save head
  save drawdown
  save budget
  save ibound

period 16 step 7 
  print head
  print drawdown
  print budget
  save head
  save drawdown
  save budget
  save ibound

period 16 step 8 
  print head
  print drawdown
  print budget
  save head
  save drawdown
  save budget
  save ibound

period 16 step 9 
  print head
  print drawdown
  print budget
  save head
  save drawdown
  save budget
  save ibound

period 16 step 10 
  print head
  print drawdown
  print budget
  save head
  save drawdown
  save budget
  save ibound

period 16 step 11 
  print head
  print drawdown
  print budget
  save head
  save drawdown
  save budget
  save ibound

period 16 step 12 
  print head
  print drawdown
  print budget
  save head
  save drawdown
  save budget
  save ibound

period 17 step 1 
  print head
  print drawdown
  print budget
  save head
  save drawdown
  save budget
  save ibound

period 17 step 2 
  print head
  print drawdown
  print budget
  save head
  save drawdown
  save budget
  save ibound

period 17 step 3 
  print head
  print drawdown
  print budget
  save head
  save drawdown
  save budget
  save ibound

period 17 step 4 
  print head
  print drawdown
  print budget
  save head
  save drawdown
  save budget
  save ibound

period 17 step 5 
  print head
  print drawdown
  print budget
  save head
  save drawdown
  save budget
  save ibound

period 17 step 6 
  print head
  print drawdown
  print budget
  save head
  save drawdown
  save budget
  save ibound

period 17 step 7 
  print head
  print drawdown
  print budget
  save head
  save drawdown
  save budget
  save ibound

period 17 step 8 
  print head
  print drawdown
  print budget
  save head
  save drawdown
  save budget
  save ibound

period 17 step 9 
  print head
  print drawdown
  print budget
  save head
  save drawdown
  save budget
  save ibound

period 17 step 10 
  print head
  print drawdown
  print budget
  save head
  save drawdown
  save budget
  save ibound

period 17 step 11 
  print head
  print drawdown
  print budget
  save head
  save drawdown
  save budget
  save ibound

period 17 step 12 
  print head
  print drawdown
  print budget
  save head
  save drawdown
  save budget
  save ibound

period 18 step 1 
  print head
  print drawdown
  print budget
  save head
  save drawdown
  save budget
  save ibound

period 18 step 2 
  print head
  print drawdown
  print budget
  save head
  save drawdown
  save budget
  save ibound

period 18 step 3 
  print head
  print drawdown
  print budget
  save head
  save drawdown
  save budget
  save ibound

period 18 step 4 
  print head
  print drawdown
  print budget
  save head
  save drawdown
  save budget
  save ibound

period 18 step 5 
  print head
  print drawdown
  print budget
  save head
  save drawdown
  save budget
  save ibound

period 18 step 6 
  print head
  print drawdown
  print budget
  save head
  save drawdown
  save budget
  save ibound

period 18 step 7 
  print head
  print drawdown
  print budget
  save head
  save drawdown
  save budget
  save ibound

period 18 step 8 
  print head
  print drawdown
  print budget
  save head
  save drawdown
  save budget
  save ibound

period 18 step 9 
  print head
  print drawdown
  print budget
  save head
  save drawdown
  save budget
  save ibound

period 18 step 10 
  print head
  print drawdown
  print budget
  save head
  save drawdown
  save budget
  save ibound

period 18 step 11 
  print head
  print drawdown
  print budget
  save head
  save drawdown
  save budget
  save ibound

period 18 step 12 
  print head
  print drawdown
  print budget
  save head
  save drawdown
  save budget
  save ibound

period 19 step 1 
  print head
  print drawdown
  print budget
  save head
  save drawdown
  save budget
  save ibound

period 19 step 2 
  print head
  print drawdown
  print budget
  save head
  save drawdown
  save budget
  save ibound

period 19 step 3 
  print head
  print drawdown
  print budget
  save head
  save drawdown
  save budget
  save ibound

period 19 step 4 
  print head
  print drawdown
  print budget
  save head
  save drawdown
  save budget
  save ibound

period 19 step 5 
  print head
  print drawdown
  print budget
  save head
  save drawdown
  save budget
  save ibound

period 19 step 6 
  print head
  print drawdown
  print budget
  save head
  save drawdown
  save budget
  save ibound

period 19 step 7 
  print head
  print drawdown
  print budget
  save head
  save drawdown
  save budget
  save ibound

period 19 step 8 
  print head
  print drawdown
  print budget
  save head
  save drawdown
  save budget
  save ibound

period 19 step 9 
  print head
  print drawdown
  print budget
  save head
  save drawdown
  save budget
  save ibound

period 19 step 10 
  print head
  print drawdown
  print budget
  save head
  save drawdown
  save budget
  save ibound

period 19 step 11 
  print head
  print drawdown
  print budget
  save head
  save drawdown
  save budget
  save ibound

period 19 step 12 
  print head
  print drawdown
  print budget
  save head
  save drawdown
  save budget
  save ibound

period 20 step 1 
  print head
  print drawdown
  print budget
  save head
  save drawdown
  save budget
  save ibound

period 20 step 2 
  print head
  print drawdown
  print budget
  save head
  save drawdown
  save budget
  save ibound

period 20 step 3 
  print head
  print drawdown
  print budget
  save head
  save drawdown
  save budget
  save ibound

period 20 step 4 
  print head
  print drawdown
  print budget
  save head
  save drawdown
  save budget
  save ibound

period 20 step 5 
  print head
  print drawdown
  print budget
  save head
  save drawdown
  save budget
  save ibound

period 20 step 6 
  print head
  print drawdown
  print budget
  save head
  save drawdown
  save budget
  save ibound

period 20 step 7 
  print head
  print drawdown
  print budget
  save head
  save drawdown
  save budget
  save ibound

period 20 step 8 
  print head
  print drawdown
  print budget
  save head
  save drawdown
  save budget
  save ibound

period 20 step 9 
  print head
  print drawdown
  print budget
  save head
  save drawdown
  save budget
  save ibound

period 20 step 10 
  print head
  print drawdown
  print budget
  save head
  save drawdown
  save budget
  save ibound

period 20 step 11 
  print head
  print drawdown
  print budget
  save head
  save drawdown
  save budget
  save ibound

period 20 step 12 
  print head
  print drawdown
  print budget
  save head
  save drawdown
  save budget
  save ibound

period 21 step 1 
  print head
  print drawdown
  print budget
  save head
  save drawdown
  save budget
  save ibound

period 21 step 2 
  print head
  print drawdown
  print budget
  save head
  save drawdown
  save budget
  save ibound

period 21 step 3 
  print head
  print drawdown
  print budget
  save head
  save drawdown
  save budget
  save ibound

period 21 step 4 
  print head
  print drawdown
  print budget
  save head
  save drawdown
  save budget
  save ibound

period 21 step 5 
  print head
  print drawdown
  print budget
  save head
  save drawdown
  save budget
  save ibound

period 21 step 6 
  print head
  print drawdown
  print budget
  save head
  save drawdown
  save budget
  save ibound

period 21 step 7 
  print head
  print drawdown
  print budget
  save head
  save drawdown
  save budget
  save ibound

period 21 step 8 
  print head
  print drawdown
  print budget
  save head
  save drawdown
  save budget
  save ibound

period 21 step 9 
  print head
  print drawdown
  print budget
  save head
  save drawdown
  save budget
  save ibound

period 21 step 10 